**
**HMNAME MATS          1 NL_E34     3
*MATERIAL, NAME=NL_E34
DENSITY
8.7,0.0 
*ELASTIC, TYPE = ISOTROPIC
210000.0  ,0.15      ,0.0 
*PLASTIC
460.00	  ,0.00000   ,0.0
461.01	  ,0.00219   ,0.0
598.00	  ,0.13691   ,0.0
*****
