**
**HMNAME MATS          1 NL_E38     3
*MATERIAL, NAME=NL_E38
*DENSITY
7.8000E+00,0.0
*ELASTIC, TYPE = ISOTROPIC
210000.0,0.345,0.0
*PLASTIC
750.00,-0.00002,0.0
382.00,0.25230,0.0
*****
